[General]
network = PipelineNetwork
sim-time-limit = 5s

# Logging
**.cmdenv-express-mode = true
**.cmdenv-status-frequency = 1s

# Random number generation
seed-0-mt = 42
