[General]
network = PipelineNetwork
sim-time-limit = 5s

# Logging
cmdenv-express-mode = true
cmdenv-autoflush = true
cmdenv-status-frequency = 1s

# Random seed
seed-set = 0
