[General]
network = PubSubNetwork
sim-time-limit = 10s

# Logging
**.cmdenv-express-mode = true
**.cmdenv-status-frequency = 1s

# Random number generation
seed-0-mt = 42
