[General]
network = PubSubNetwork
sim-time-limit = 10s

# Logging
cmdenv-express-mode = true
cmdenv-autoflush = true
cmdenv-status-frequency = 1s

# Random seed
seed-set = 0
